272
# CELL(abcABC):   10.273   17.895999999999997   15.416   100.33   110.59   91.01999999999998 cell{atomic_unit}  Traj: positions{atomic_unit} Step:          0  Bead:       0
Al       0.14000000       3.99600000       3.36400000
Al       2.46500000      17.31700000       3.41300000
Al       2.64200000       2.36600000       3.35800000
Al       0.11700000       7.04900000       3.43500000
Si       4.49900000       2.57600000       0.58200000
Si       1.89500000       7.08900000       0.58300000
Si       1.89000000       1.08300000       0.61600000
Si      -0.60800000       5.55100000       0.63100000
O       -0.85600000       2.76900000       2.24800000
O        1.76000000       7.05600000       2.26800000
O       -0.47300000       5.53500000       2.21900000
O        2.03300000       0.94100000       2.25000000
O       -0.28700000       4.13500000      -0.04600000
O        2.16100000      -0.47100000      -0.05600000
O        0.41300000       1.58400000       0.07600000
O        3.09500000       6.01000000      -0.00900000
O        0.46700000       6.59000000      -0.10100000
O        3.11600000       1.98700000      -0.11100000
O       -0.79700000       8.23900000       2.28100000
O        1.70500000       3.64100000       2.25400000
O        3.31300000       0.99600000       4.28200000
O        0.75500000       5.44500000       4.32100000
O       -1.55000000       3.90500000       4.33900000
O        1.06400000       8.37100000       4.36800000
O       -1.49400000       7.08700000       4.38000000
O        0.93700000       2.55200000       4.37600000
H       -0.23000000       0.17500000       2.59700000
H        2.13000000       4.57300000       2.45400000
H       -1.08600000       1.12600000       4.84600000
H        1.75300000       5.47300000       4.66400000
H       -1.57200000       3.81800000       5.22000000
H        1.18700000      -1.22700000       5.42600000
H        1.13800000       2.55700000       5.30000000
H       -1.33700000       7.12900000       5.48800000
Al      -2.40300000       2.46400000      10.51100000
Al       0.06900000      15.97000000      10.49200000
Al       0.23000000       1.09200000      10.36700000
Al      -2.41500000       5.49700000      10.52100000
Si       1.99600000       1.23100000       7.58400000
Si      -0.61500000       5.68400000       7.70300000
Si      -0.41900000      -0.33100000       7.71800000
Si      -3.04400000       4.17500000       7.69700000
O       -3.39300000       1.28200000       9.23500000
O       -0.64800000       5.68800000       9.36900000
O       -2.91500000       4.16100000       9.31200000
O       -0.28600000      -0.46700000       9.40000000
O       -2.66500000       2.62400000       6.93200000
O       -0.24000000      -1.82100000       7.10000000
O       -1.93900000       0.02400000       7.30200000
O        0.39700000       4.49500000       7.09100000
O       -2.08900000       5.25500000       7.00100000
O        0.62200000       0.59700000       6.95200000
O       -3.33700000       6.89600000       9.42900000
O       -0.85000000       2.38400000       9.27900000
O        0.95800000      -0.33800000      11.36900000
O       -1.69700000       4.04200000      11.44400000
O       -3.99700000       2.36800000      11.41600000
O       -1.40000000       6.87000000      11.42800000
O       -4.12200000       5.72400000      11.44900000
O       -1.42000000       1.24900000      11.39200000
H       -2.73700000      -1.24800000       9.15100000
H       -0.29300000       3.26100000       9.26000000
H       -3.25400000      -0.15200000      11.49200000
H       -1.89200000       3.85900000      12.49100000
H       -4.51700000       3.21600000      11.34200000
H       -1.59900000      -1.49300000      12.27300000
H       -1.43500000       0.91600000      12.38100000
H       -4.54200000       5.35500000      12.33100000
Al       0.02100000      12.85500000       3.36100000
Al       2.61800000       8.49000000       3.27500000
Al       2.63600000      11.50300000       3.40800000
Al      -0.16700000      15.92400000       3.58300000
Si       4.33000000      11.59800000       0.58000000
Si       1.70500000      15.96100000       0.63600000
Si       1.81800000      10.02700000       0.55700000
Si      -0.81700000      14.48400000       0.67300000
O       -0.92800000      11.53000000       2.23300000
O        1.40200000      16.06200000       2.23500000
O       -0.73600000      14.45200000       2.29000000
O        2.04000000       9.95300000       2.23400000
O       -0.53100000      12.97900000       0.00100000
O        2.30800000       8.50100000       0.01500000
O        0.34400000      10.46800000       0.12800000
O        2.81000000      14.86300000       0.08700000
O        0.23400000      15.42400000      -0.10800000
O        2.88600000      11.15000000      -0.17200000
O       -0.96200000      17.11800000       2.41300000
O        1.67800000      12.78500000       2.27100000
O        3.30500000       9.89700000       4.22800000
O        0.64600000      14.32400000       4.26700000
O       -1.64600000      12.74100000       4.26700000
O        0.84500000      17.05100000       4.48500000
O       -1.82900000      16.13000000       4.43600000
O        1.01400000      11.62900000       4.28800000
H       -0.22400000       8.99100000       2.25100000
H        2.22200000      13.63200000       2.17400000
H       -0.80200000       9.87000000       4.58200000
H        1.54400000      14.41300000       4.62000000
H       -1.76100000      12.76500000       5.23400000
H        1.33700000       8.25100000       5.27700000
H        0.87900000      11.64800000       5.29100000
H       -1.92900000      16.17800000       5.40100000
Al      -2.40800000      11.50600000      10.63000000
Al       0.19200000       7.07600000      10.47500000
Al       0.14600000      10.00000000      10.49200000
Al      -2.72600000      14.53800000      10.55000000
Si       1.97600000      10.18800000       7.64500000
Si      -0.87700000      14.55100000       7.79000000
Si      -0.52100000       8.64700000       7.63900000
Si      -3.36100000      13.07500000       7.77300000
O       -3.34900000      10.17200000       9.24800000
O       -0.96100000      14.66500000       9.38500000
O       -3.21900000      12.96400000       9.38400000
O       -0.53500000       8.59600000       9.32200000
O       -3.03600000      11.60600000       6.97000000
O       -0.16500000       7.12900000       7.02400000
O       -2.06000000       9.09200000       7.16200000
O        0.28300000      13.53600000       7.19600000
O       -2.27200000      14.09600000       7.01800000
O        0.53100000       9.77500000       6.97000000
O       -3.58300000      15.70100000       9.41500000
O       -0.81600000      11.41000000       9.56500000
O        0.74400000       8.49800000      11.48000000
O       -1.95600000      13.10100000      11.61300000
O       -4.09900000      11.35200000      11.34600000
O       -1.64100000      15.95800000      11.48400000
O       -4.42500000      14.64100000      11.41500000
O       -1.53500000      10.11200000      11.50600000
H       -3.04000000       7.74100000       9.34300000
H       -0.37600000      12.22000000       9.34900000
H       -3.50600000       8.53200000      11.80400000
H       -0.97100000      13.28700000      11.74200000
H       -4.36400000      11.74500000      12.22500000
H       -1.28900000       7.32900000      12.37900000
H       -1.48600000      10.05000000      12.47900000
H       -4.37500000      14.67800000      12.50400000
Al       5.12500000       3.85100000       3.33700000
Al       7.61700000      17.44800000       3.37500000
Al       7.81700000       2.51300000       3.31700000
Al       5.22900000       6.92000000       3.39100000
Si       9.61400000       2.62300000       0.61100000
Si       7.16700000       6.99000000       0.58300000
Si       7.15900000       1.06400000       0.71100000
Si       4.49800000       5.50200000       0.58900000
O        4.32500000       2.63600000       2.28000000
O        6.98500000       7.02900000       2.28400000
O        4.55700000       5.35300000       2.22500000
O        7.23200000       0.96100000       2.28700000
O        4.69500000       3.99400000      -0.25700000
O        7.48400000      -0.39300000      -0.03100000
O        5.58800000       1.35500000       0.15800000
O        8.16100000       5.84500000      -0.03200000
O        5.60100000       6.44900000      -0.12100000
O        8.10300000       2.20300000      -0.08400000
O        4.27900000       8.15300000       2.21900000
O        6.84400000       3.66600000       2.11500000
O        8.36400000       1.07900000       4.45700000
O        5.90300000       5.30600000       4.25700000
O        3.46200000       3.78600000       4.25300000
O        6.21500000       8.10700000       4.31200000
O        3.47400000       7.03200000       4.29600000
O        6.04200000       2.45700000       4.28200000
H        4.90900000      -0.20700000       1.75000000
H        7.34200000       4.59900000       2.05600000
H        4.24600000       1.08900000       4.61500000
H        6.78400000       5.41500000       4.17200000
H        3.43700000       3.64700000       5.23400000
H        6.07800000      -0.67800000       5.28000000
H        6.30500000       2.70600000       5.28000000
H        3.44200000       6.76400000       5.29900000
Al       2.80400000       2.53900000      10.44800000
Al       5.07600000      16.08000000      10.40500000
Al       5.31900000       1.06200000      10.41700000
Al       2.73500000       5.54800000      10.48000000
Si       7.13600000       1.19400000       7.60400000
Si       4.46300000       5.67900000       7.56800000
Si       4.69100000      -0.34400000       7.60200000
Si       2.00300000       4.13800000       7.58900000
O        1.90700000       1.28500000       9.25400000
O        4.39300000       5.81200000       9.27900000
O        2.35000000       3.94400000       9.22300000
O        4.76400000      -0.38800000       9.16700000
O        2.31100000       2.69200000       6.84800000
O        5.01700000      -1.80500000       6.83700000
O        3.14000000       0.14400000       7.02900000
O        5.62900000       4.52200000       7.10700000
O        3.03600000       5.26800000       6.79900000
O        5.64900000       0.79400000       6.87600000
O        1.82900000       6.82400000       9.42200000
O        4.37800000       2.37000000       9.23400000
O        6.05300000      -0.39900000      11.36600000
O        3.49900000       4.04600000      11.48400000
O        1.20200000       2.45600000      11.28500000
O        3.63700000       6.96000000      11.43800000
O        1.12100000       5.72200000      11.45200000
O        3.77800000       1.19600000      11.43300000
H        2.30800000      -1.28000000       9.07400000
H        4.65500000       3.25700000       9.06300000
H        1.90500000      -0.48600000      11.71300000
H        3.41500000       3.83400000      12.52000000
H        0.99500000       2.82900000      12.32700000
H        3.90000000      -1.77100000      12.36200000
H        3.72600000       1.49900000      12.39000000
H        0.62600000       5.00600000      11.72900000
Al       5.26700000      12.86700000       3.35700000
Al       7.85100000       8.35700000       3.33900000
Al       7.70000000      11.35400000       3.36200000
Al       5.16500000      15.82300000       3.36700000
Si       9.44000000      11.52200000       0.56100000
Si       6.77600000      16.04300000       0.58200000
Si       6.95500000       9.94000000       0.51100000
Si       4.31800000      14.48000000       0.50600000
O        4.21200000      11.72200000       2.24000000
O        6.64100000      16.03600000       2.19500000
O        4.55100000      14.32000000       2.08100000
O        7.08200000       9.82900000       2.24500000
O        4.85600000      13.00100000      -0.10100000
O        7.39300000       8.48500000      -0.02300000
O        5.43500000      10.40100000       0.02500000
O        7.88700000      15.01800000       0.02100000
O        5.38800000      15.60700000      -0.10500000
O        7.92900000      11.19700000      -0.19100000
O        4.06300000      17.01000000       2.19500000
O        6.84600000      12.80400000       2.29100000
O        8.42600000       9.89200000       4.37600000
O        5.97200000      14.33100000       4.36600000
O        3.75600000      12.58300000       4.42400000
O        5.88100000      17.31100000       4.26300000
O        3.57600000      16.02300000       4.31600000
O        6.12800000      11.43500000       4.28600000
H        4.50600000       9.07400000       2.06100000
H        7.20700000      13.66000000       2.16600000
H        4.15500000       9.95400000       4.59900000
H        6.91200000      14.59500000       4.24000000
H        3.47900000      13.29200000       5.11400000
H        6.23100000       8.26400000       5.28400000
H        6.36400000      11.47900000       5.25700000
H        3.73300000      16.22500000       5.16800000
Al       2.77300000      11.51300000      10.38600000
Al       5.29200000       6.94700000      10.36200000
Al       5.29300000      10.03900000      10.29600000
Al       2.58900000      14.47200000      10.44400000
Si       6.96600000      10.06200000       7.60300000
Si       4.32900000      14.61900000       7.63200000
Si       4.48200000       8.53700000       7.63800000
Si       1.85600000      13.05300000       7.56400000
O        1.70500000      10.37100000       9.27200000
O        4.08700000      14.87000000       9.23600000
O        2.14000000      12.99600000       9.19100000
O        4.52100000       8.52400000       9.22400000
O        2.27900000      11.69700000       6.90700000
O        4.72800000       7.11400000       6.87600000
O        2.95500000       9.06000000       7.04900000
O        5.39600000      13.47900000       7.21400000
O        2.86900000      14.12400000       6.85300000
O        5.64700000       9.51500000       6.92100000
O        1.53800000      15.86500000       9.48000000
O        4.36800000      11.36000000       9.26100000
O        5.90100000       8.66400000      11.33100000
O        3.31600000      13.01800000      11.37200000
O        1.17700000      11.23800000      11.47600000
O        3.36400000      15.99800000      11.38900000
O        0.94700000      14.64400000      11.51900000
O        3.68400000      10.24300000      11.28800000
H        2.08300000       7.68400000       9.27800000
H        4.92700000      12.14800000       9.19600000
H        1.33700000       8.57700000      12.33800000
H        4.22200000      13.15600000      11.51300000
H        1.25500000      11.67200000      12.43300000
H        3.24200000       7.83000000      11.72900000
H        3.73800000      10.06200000      12.20800000
H        1.12900000      14.63300000      12.67500000
